63
Energy = -1560.096469765
Ag   -2.6224377    3.7192861    9.2596746 
Si    0.2667283    3.0803357    8.0763790 
Si   -1.7685145    0.7501296    8.2639008 
N    -1.2167952    2.3537591    8.5685272 
C    -4.0301637    5.1298661    9.9512454 
N    -4.7751866    5.9307180    9.1696886 
N    -4.3238229    5.3800580   11.2377776 
C    -5.5048856    6.9161617    9.9686279 
H    -6.5320278    7.0675345    9.6091392 
H    -4.9827341    7.8932273    9.9461718 
C     0.8466938    4.3576663    9.3576521 
H     0.1069602    5.1702343    9.4885495 
H     1.8053236    4.8230233    9.0612496 
H     0.9919859    3.8775730   10.3429319 
C    -0.6939888   -0.5871498    9.0768956 
H     0.3267660   -0.6083712    8.6574291 
H    -1.1361017   -1.5915396    8.9357870 
H    -0.6030998   -0.4050828   10.1634351 
C    -5.4629862    6.2910157   11.3510616 
H    -5.3223926    7.0383640   12.1437271 
H    -6.3889063    5.7236619   11.5709564 
C     0.1112779    3.9983029    6.4172458 
H    -0.1934600    3.3000951    5.6159716 
H     1.0633154    4.4721503    6.1122171 
H    -0.6577490    4.7914212    6.4731952 
C    -4.7957110    4.7468998    6.9951311 
H    -4.0125059    4.0223567    7.2758673 
H    -4.7413323    4.8899740    5.9025034 
H    -5.7779035    4.3085774    7.2429033 
C    -3.2352863    6.6902790    7.4010321 
H    -3.1122484    7.6663178    7.9035859 
H    -3.1062026    6.8434636    6.3158393 
H    -2.4332486    6.0168470    7.7488031 
C    -4.6139480    6.0932712    7.6995382 
C    -3.8614916    4.5747896   12.3995064 
C    -2.3323534    4.5418058   12.4470399 
H    -1.8968904    4.0295173   11.5715493 
H    -2.0022095    3.9980085   13.3487775 
H    -1.9220910    5.5654887   12.4860769 
C    -5.6956886    7.0424410    7.1739652 
H    -6.7108929    6.6525027    7.3631074 
H    -5.5774985    7.1389140    6.0825172 
H    -5.6164848    8.0555192    7.6025913 
C     1.6913510    1.8433394    7.8670348 
H     1.9084075    1.3128509    8.8114299 
H     2.6119303    2.3717421    7.5561583 
H     1.4704031    1.0822240    7.0967325 
H    -5.4542160    5.2580448   13.7638756 
C    -4.3536716    5.2282623   13.6954658 
H    -3.9592330    6.2526964   13.8126490 
H    -3.9896294    4.6334616   14.5490143 
C    -4.4389798    3.1594504   12.3004712 
H    -5.5428256    3.1856998   12.2663825 
H    -4.1384347    2.5569921   13.1746034 
H    -4.0780819    2.6496090   11.3905412 
C    -3.5174187    0.5005982    8.9654516 
H    -3.8944855   -0.5143824    8.7377507 
H    -4.2396907    1.2265896    8.5459020 
H    -0.8741720    0.4399349    5.9255261 
C    -1.8630001    0.3392671    6.4102647 
H    -2.5539389    1.0300902    5.8919909 
H    -2.2176530   -0.6935949    6.2337816 
H    -3.5199967    0.6153327   10.0656390 
