36
Energy = -687.7502860179
Ag   -2.5785215    3.7551706    9.5802364 
C    -4.1866915    5.2902775   10.1347133 
N    -4.8661726    6.0576698    9.2694222 
N    -4.6005815    5.5770861   11.3780868 
C    -5.6825362    7.0577886    9.9629833 
H    -6.6762937    7.1768025    9.5089270 
H    -5.1781877    8.0442443    9.9524693 
C    -5.7535078    6.4814001   11.3668896 
H    -5.6856057    7.2577240   12.1421634 
H    -6.6916800    5.9146174   11.5285185 
C    -4.7477818    4.7643244    7.1771803 
H    -4.0359682    4.0325292    7.6018022 
H    -4.5615285    4.8250512    6.0912143 
H    -5.7711475    4.3828454    7.3381034 
C    -3.1625814    6.6798295    7.6013660 
H    -3.0385234    7.6681674    8.0797544 
H    -2.9473982    6.7892692    6.5243903 
H    -2.4170352    5.9883879    8.0336830 
C    -4.5819916    6.1448339    7.8151055 
C    -4.1974314    4.8292974   12.5956126 
C    -2.6802924    4.9178048   12.7706955 
H    -2.1466547    4.4582167   11.9186544 
H    -2.3727225    4.3868599   13.6882048 
H    -2.3601220    5.9713244   12.8499215 
C    -5.5823849    7.0974562    7.1534474 
H    -6.6224531    6.7466056    7.2695725 
H    -5.3670131    7.1388489    6.0731337 
H    -5.5070689    8.1268760    7.5430623 
H    -5.9583289    5.4143129   13.7854188 
C    -4.8567359    5.4595460   13.8261632 
H    -4.5476664    6.5099109   13.9661230 
H    -4.5384163    4.9004084   14.7210804 
C    -4.6503681    3.3708460   12.4752377 
H    -5.7440415    3.3088291   12.3307600 
H    -4.3915068    2.8077711   13.3886644 
H    -4.1580042    2.8805277   11.6162310 
