63
Energy = -3053.216508866
Cu    5.3545868    2.0642084    8.6079802 
Si    5.4677599    4.7988216    9.9794638 
Si    7.3746713    2.5311017   10.8581764 
N     5.1448286    0.5362799    6.1266687 
N     3.4141943    0.2302225    7.4278004 
N     6.1176572    3.2049946    9.8900612 
C     4.5875896    0.8774926    7.3036479 
C     2.6140644    0.1688284    8.6758108 
C     4.2245529   -0.2596165    5.3164964 
H     3.7323999    0.3756268    4.5528466 
H     4.7315113   -1.0863233    4.7995839 
C     3.2342564   -0.7497365    6.3588492 
H     3.4911989   -1.7657714    6.7194927 
H     2.2029763   -0.7706588    5.9797638 
C     6.3059072    1.2258489    5.5121244 
C     2.3349058    1.5824492    9.1892390 
H     1.8478664    2.1935752    8.4101011 
H     1.6673789    1.5343214   10.0667426 
H     3.2628030    2.0925114    9.5039480 
C     3.3768133   -0.6425961    9.7279143 
H     4.3316969   -0.1460783    9.9722059 
H     2.7849871   -0.7319942   10.6548825 
H     3.5968367   -1.6616319    9.3624399 
C     7.4728412    1.2813406    6.4990690 
H     7.7300634    0.2709149    6.8605453 
H     8.3585463    1.7116954    6.0010420 
H     7.2420698    1.9161081    7.3735150 
C     4.6007762    5.2529846    8.3503352 
H     3.7812891    4.5484325    8.1131113 
H     4.1637144    6.2680754    8.3978740 
H     5.3140840    5.2340016    7.5055589 
C     6.7884210    6.1295392   10.2769753 
H     7.5505308    6.1145807    9.4763601 
H     6.3370187    7.1389902   10.2976999 
H     7.3140049    5.9821108   11.2381464 
C     1.2712702   -0.5052530    8.3802205 
H     1.3862201   -1.5550700    8.0606249 
H     0.6654307   -0.5088072    9.3009052 
H     0.7034304    0.0430426    7.6083095 
C     4.1688617    4.9804100   11.3538483 
H     4.6099175    4.7707257   12.3455153 
H     3.7375320    5.9986228   11.3836859 
H     3.3390808    4.2644276   11.2054188 
C     7.2229486    2.9786898   12.6970720 
H     6.2541590    2.6353853   13.1036737 
H     8.0274354    2.5062776   13.2911685 
H     7.2846702    4.0696177   12.8636540 
C     9.1053438    3.0656066   10.2870321 
H     9.2264887    4.1618817   10.3542920 
H     9.9017911    2.5991618   10.8969184 
H     9.2741122    2.7792801    9.2323698 
C     5.8892155    2.6405916    5.0960093 
H     5.5875253    3.2240619    5.9832619 
H     6.7261666    3.1651445    4.6036901 
H     5.0394998    2.6150502    4.3900887 
C     7.3445592    0.6326187   10.7662756 
H     7.4406245    0.2711040    9.7249554 
H     8.1770754    0.1942736   11.3482312 
H     6.4008315    0.2285445   11.1768770 
C     6.7633154    0.4371536    4.2813578 
H     5.9958467    0.4025696    3.4893876 
H     7.6520524    0.9287562    3.8533647 
H     7.0473303   -0.5962588    4.5466551 
