65
Energy = -3054.378613911
Cu    5.3445981    2.0219668    8.6104490 
Si    5.4197376    4.7469337   10.0072948 
Si    7.3506597    2.4940559   10.8740421 
N     5.0852903    0.4585282    6.1536978 
N     3.3580440    0.2046861    7.4697560 
N     6.1289895    3.1799129    9.8663165 
C     4.5450963    0.8240781    7.3311025 
C     2.5651694    0.1749784    8.7239554 
C     4.1390768   -0.3193249    5.3561616 
H     3.6539781    0.3240022    4.5948455 
H     4.6209536   -1.1603414    4.8384478 
C     3.1474763   -0.7797215    6.4104742 
H     3.3847323   -1.7986587    6.7765556 
H     2.1128493   -0.7806194    6.0401597 
C     6.2695921    1.1046554    5.5353549 
C     2.2932228    1.6020879    9.2012672 
H     1.7882107    2.1891815    8.4151570 
H     1.6465363    1.5813230   10.0951571 
H     3.2283860    2.1204611    9.4775709 
C     3.3343067   -0.6111151    9.7906951 
H     4.2931333   -0.1114645   10.0117748 
H     2.7514844   -0.6733665   10.7257112 
H     3.5478319   -1.6400032    9.4494608 
C     7.4509740    1.0719761    6.5057581 
H     7.6740688    0.0371027    6.8173678 
H     8.3456864    1.4938811    6.0172619 
H     7.2521607    1.6735571    7.4107352 
C     4.5871813    5.2404890    8.3722207 
H     3.8015278    4.5174643    8.0817781 
H     4.1119274    6.2365671    8.4474549 
H     5.3253741    5.2814838    7.5501720 
C     6.6826751    6.1045376   10.4127908 
H     7.4672789    6.1637711    9.6368434 
H     6.1920371    7.0937110   10.4746710 
H     7.1846842    5.9228258   11.3806812 
C     1.2195172   -0.5041417    8.4551915 
H     1.3313613   -1.5601044    8.1556864 
H     0.6229968   -0.4885968    9.3817441 
H     0.6431740    0.0280048    7.6784313 
C     4.0734177    4.8260266   11.3463577 
H     4.4900840    4.5871187   12.3418400 
H     3.6095829    5.8285657   11.4054138 
H     3.2707007    4.0937035   11.1413776 
C     7.1142927    2.8894948   12.7163631 
H     6.1339237    2.5242692   13.0729838 
H     7.8992374    2.4086366   13.3295663 
H     7.1567076    3.9756349   12.9159271 
C     9.0988551    3.0609175   10.3986042 
H     9.1965439    4.1592051   10.4711230 
H     9.8653579    2.6084454   11.0553903 
H     9.3353613    2.7763161    9.3568533 
C     5.9200404    2.5489916    5.1625353 
H     5.6628261    3.1242719    6.0688264 
H     6.7757490    3.0433765    4.6715748 
H     5.0594104    2.5841972    4.4705793 
C     7.3524786    0.5978179   10.7379731 
H     7.4819028    0.2577428    9.6933429 
H     8.1784636    0.1635767   11.3322471 
H     6.4075302    0.1674527   11.1179746 
C     6.6683180    0.3286438    4.2768924 
H     5.8851901    0.3482743    3.4998967 
H     7.5691135    0.7935867    3.8443323 
H     6.9137933   -0.7225455    4.5085873 
H     8.3559875    4.7129586    7.0362959 
H     7.9671240    4.3930409    7.6113781 
