36
Energy = -2180.836902906
Cu    5.3225713    2.1718975    8.5889154 
N     5.1172794    0.5399306    6.1013383 
N     3.4006345    0.2198716    7.4065625 
C     4.5606273    0.8877784    7.2747395 
C     2.6113262    0.1787379    8.6593857 
C     4.2111405   -0.2808919    5.2986983 
H     3.7029762    0.3371931    4.5313973 
H     4.7306177   -1.1036110    4.7869053 
C     3.2333279   -0.7781656    6.3510318 
H     3.5117083   -1.7853250    6.7212463 
H     2.2009580   -0.8242473    5.9757805 
C     6.3013996    1.2130569    5.5183347 
C     2.2659391    1.6043651    9.0912510 
H     1.7295484    2.1375883    8.2874986 
H     1.6283297    1.5825203    9.9919756 
H     3.1789845    2.1822856    9.3368164 
C     3.4276222   -0.5261028    9.7479876 
H     4.3538764    0.0427632    9.9477910 
H     2.8517902   -0.5958991   10.6871420 
H     3.7057504   -1.5490547    9.4361342 
C     7.4662644    1.1341554    6.5061927 
H     7.6858841    0.0848768    6.7689257 
H     8.3701942    1.5874862    6.0639001 
H     7.2355852    1.6817147    7.4419039 
C     1.3062530   -0.5831806    8.4152470 
H     1.4773029   -1.6375142    8.1371461 
H     0.7147471   -0.5819077    9.3453813 
H     0.6955690   -0.1027791    7.6307852 
C     5.9563570    2.6748548    5.2152550 
H     5.6944172    3.1998078    6.1520917 
H     6.8157859    3.1924190    4.7545379 
H     5.0980640    2.7454165    4.5230132 
C     6.7101723    0.5009131    4.2263076 
H     5.9254689    0.5483959    3.4515338 
H     7.6056945    0.9958939    3.8161832 
H     6.9679674   -0.5572512    4.4071785 
