27
Energy = -872.2179986984
Si    5.4767202    4.9312043    9.9888766 
Si    7.4365413    2.4955849   10.9710654 
N     6.2045648    3.3501469   10.0810876 
C     4.6703280    5.1574707    8.3033169 
H     3.9219998    4.3659763    8.1217072 
H     4.1638055    6.1368288    8.2262936 
H     5.4186575    5.1005688    7.4923700 
C     6.7278791    6.3196856   10.2719304 
H     7.5351578    6.2888463    9.5177466 
H     6.2421346    7.3101879   10.1975703 
H     7.1946290    6.2444588   11.2705024 
C     4.1561124    4.9602729   11.3418206 
H     4.6027583    4.8584910   12.3465173 
H     3.6043039    5.9176788   11.3071461 
H     3.4281530    4.1421148   11.2027925 
C     7.3447626    2.8971490   12.8158528 
H     6.3547725    2.6335333   13.2298197 
H     8.1042659    2.3264520   13.3811902 
H     7.5164546    3.9721569   13.0035624 
C     9.0983876    3.0525965   10.2621198 
H     9.2675325    4.1311607   10.4267464 
H     9.9202585    2.4970037   10.7505048 
H     9.1555449    2.8559418    9.1771001 
C     7.2307756    0.6414141   10.7238882 
H     7.2901412    0.3849539    9.6512606 
H     8.0110703    0.0695172   11.2584623 
H     6.2475981    0.2988357   11.0934195 
