35
Energy = -540.7981872926
N     5.1048456    0.5410899    6.1023303 
N     3.4156586    0.2076243    7.4050607 
C     4.5689114    0.8855594    7.2846739 
C     2.6672753    0.1323104    8.6708413 
C     4.2202319   -0.3019618    5.2921535 
H     3.7398620    0.2889995    4.4860549 
H     4.7544038   -1.1418532    4.8207444 
C     3.2051508   -0.7675013    6.3307285 
H     3.4213498   -1.7966309    6.6825332 
H     2.1730379   -0.7526909    5.9479992 
C     6.2442036    1.2598890    5.5071272 
C     2.6932990    1.5029943    9.3463840 
H     2.2270662    2.2618941    8.6950113 
H     2.1362177    1.4623530   10.2989932 
H     3.7286043    1.8201168    9.5405048 
C     3.3181053   -0.9121003    9.5870629 
H     4.3568168   -0.6148498    9.8114346 
H     2.7649494   -1.0048667   10.5383958 
H     3.3362195   -1.9089506    9.1104792 
C     7.2501597    1.5994849    6.6067279 
H     7.6172617    0.6779599    7.0905455 
H     8.1110301    2.1382436    6.1727318 
H     6.7834037    2.2226014    7.3842580 
C     1.2142157   -0.2575609    8.3852311 
H     1.1267360   -1.2783964    7.9741511 
H     0.6322194   -0.2302076    9.3215814 
H     0.7489931    0.4477575    7.6746019 
C     5.7439348    2.5488741    4.8420047 
H     5.2745538    3.2015079    5.5975722 
H     6.5765426    3.0992076    4.3682729 
H     4.9966608    2.3307414    4.0580877 
C     6.9262941    0.3693899    4.4646506 
H     6.2732038    0.1627349    3.5986208 
H     7.8300436    0.8733929    4.0824675 
H     7.2360874   -0.5933721    4.9085188 
